
**** 04/03/24 13:08:18 ****** PSpice Lite (October 2012) ****** ID# 10813 ****

 ** Profile: "SCHEMATIC1-S2"  [ C:\Users\gomez\Desktop\s2\nand\S2-PSpiceFiles\SCHEMATIC1\S2.sim ] 


 ****     CIRCUIT DESCRIPTION


******************************************************************************




** Creating circuit file "S2.cir" 
** WARNING: THIS AUTOMATICALLY GENERATED FILE MAY BE OVERWRITTEN BY SUBSEQUENT SIMULATIONS

*Libraries: 
* Profile Libraries :
* Local Libraries :
.STMLIB "../../../s2-pspicefiles/s2.stl" 
* From [PSPICE NETLIST] section of C:\Users\gomez\AppData\Roaming\SPB_16.6\cdssetup\OrCAD_PSpice/16.6.0/PSpice.ini file:
.lib "nomd.lib" 

*Analysis directives: 
.TRAN  0 900ns 0 100ns 
.OPTIONS ADVCONV
.PROBE64 V(alias(*)) I(alias(*)) W(alias(*)) D(alias(*)) NOISE(alias(*)) 
.INC "..\SCHEMATIC1.net" 



**** INCLUDING SCHEMATIC1.net ****
* source S2
X_U1A         N01368 N01368 N01390 $G_DPWR $G_DGND 74ALS00A PARAMS:
+ IO_LEVEL=0 MNTYMXDLY=0
X_U1C         N00888 N00894 N01368 $G_DPWR $G_DGND 74ALS00A PARAMS:
+ IO_LEVEL=0 MNTYMXDLY=0
X_U1D         N01390 N00914 SALIDA $G_DPWR $G_DGND 74ALS00A PARAMS:
+ IO_LEVEL=0 MNTYMXDLY=0
U_A         STIM(1,0) $G_DPWR $G_DGND N00888 IO_STM STIMULUS=A
U_B         STIM(1,0) $G_DPWR $G_DGND N00894 IO_STM STIMULUS=B
U_C         STIM(1,0) $G_DPWR $G_DGND N00914 IO_STM STIMULUS=C

**** RESUMING S2.cir ****
.END

* C:\Users\gomez\Desktop\s2\nand\S2-PSpiceFiles\S2.stl written on Wed Apr 03 13:07:48 2024
* by Stimulus Editor -- Lite Version 16.6.0
;!Stimulus Get
;! A Digital B Digital C Digital
;!Ok
;!Plot Axis_Settings
;!Xrange 0s 900ns
;!AutoUniverse
;!XminRes 1ns
;!YminRes 1n
;!Ok
.STIMULUS A STIM (1, 1)
+   +0s 0
+   400ns 1
.STIMULUS B STIM (1, 1)
+   +0s 0
+   200ns 1
+   401ns 0
+   601ns 1
.STIMULUS C STIM (1, 1)
+   +0s 0
+   101ns 1
+   202ns 0
+   301ns 1
+   401ns 0
+   499ns 1
+   601ns 0
+   700ns 1

**** 04/03/24 13:08:18 ****** PSpice Lite (October 2012) ****** ID# 10813 ****

 ** Profile: "SCHEMATIC1-S2"  [ C:\Users\gomez\Desktop\s2\nand\S2-PSpiceFiles\SCHEMATIC1\S2.sim ] 


 ****     Digital Gate MODEL PARAMETERS


******************************************************************************




               D_ALS00A        
      TPLHMN    3.000000E-09 
      TPLHTY    7.000000E-09 
      TPLHMX   11.000000E-09 
      TPHLMN    2.000000E-09 
      TPHLTY    5.000000E-09 
      TPHLMX    8.000000E-09 


**** 04/03/24 13:08:18 ****** PSpice Lite (October 2012) ****** ID# 10813 ****

 ** Profile: "SCHEMATIC1-S2"  [ C:\Users\gomez\Desktop\s2\nand\S2-PSpiceFiles\SCHEMATIC1\S2.sim ] 


 ****     Digital IO  MODEL PARAMETERS


******************************************************************************




               IO_STM          IO_ALS00        
        DRVL    0              46.9          
        DRVH    0              35.3          
       AtoD1                 AtoD_ALS00      
       AtoD2                 AtoD_ALS00_NX   
       AtoD3                 AtoD_ALS00      
       AtoD4                 AtoD_ALS00_NX   
       DtoA1 DtoA_STM        DtoA_ALS00      
       DtoA2 DtoA_STM        DtoA_ALS00      
       DtoA3 DtoA_STM        DtoA_ALS00      
       DtoA4 DtoA_STM        DtoA_ALS00      
      TSWHL1                  529.000000E-12 
      TSWHL2                  513.000000E-12 
      TSWHL3                  529.000000E-12 
      TSWHL4                  513.000000E-12 
      TSWLH1                  695.000000E-12 
      TSWLH2                  718.000000E-12 
      TSWLH3                  695.000000E-12 
      TSWLH4                  718.000000E-12 
       TPWRT  100.000000E+03    2.900000E-09 



          JOB CONCLUDED

**** 04/03/24 13:08:18 ****** PSpice Lite (October 2012) ****** ID# 10813 ****

 ** Profile: "SCHEMATIC1-S2"  [ C:\Users\gomez\Desktop\s2\nand\S2-PSpiceFiles\SCHEMATIC1\S2.sim ] 


 ****     JOB STATISTICS SUMMARY


******************************************************************************



  Total job time                    =         .08
