
**** 05/29/24 12:40:46 ****** PSpice Lite (October 2012) ****** ID# 10813 ****

 ** Profile: "SCHEMATIC1-S7"  [ C:\Users\gomez\Desktop\S7\S7-PSpiceFiles\SCHEMATIC1\S7.sim ] 


 ****     CIRCUIT DESCRIPTION


******************************************************************************




** Creating circuit file "S7.cir" 
** WARNING: THIS AUTOMATICALLY GENERATED FILE MAY BE OVERWRITTEN BY SUBSEQUENT SIMULATIONS

*Libraries: 
* Profile Libraries :
* Local Libraries :
.STMLIB "../../../s7-pspicefiles/s7.stl" 
* From [PSPICE NETLIST] section of C:\Users\gomez\AppData\Roaming\SPB_16.6\cdssetup\OrCAD_PSpice/16.6.0/PSpice.ini file:
.lib "nomd.lib" 

*Analysis directives: 
.TRAN  0 4000ns 50ns 
.OPTIONS ADVCONV
.PROBE64 V(alias(*)) I(alias(*)) W(alias(*)) D(alias(*)) NOISE(alias(*)) 
.INC "..\SCHEMATIC1.net" 



**** INCLUDING SCHEMATIC1.net ****
* source S7
U_A         STIM(1,0) $G_DPWR $G_DGND A IO_STM STIMULUS=A
U_CLK         STIM(1,0) $G_DPWR $G_DGND CLK IO_STM STIMULUS=CLK
U_Reset         STIM(1,0) $G_DPWR $G_DGND RESET IO_STM STIMULUS=RESET
U_UNO         STIM(1,0) $G_DPWR $G_DGND UNO IO_STM STIMULUS=UNO
X_U7A         A N00974 $G_DPWR $G_DGND 74LS04 PARAMS:
+ IO_LEVEL=0 MNTYMXDLY=0
X_U8A         A CUENTA0 N01455 $G_DPWR $G_DGND 74LS08 PARAMS:
+ IO_LEVEL=0 MNTYMXDLY=0
X_U8B         N00974 CUENTA1 N01847 $G_DPWR $G_DGND 74LS08 PARAMS:
+ IO_LEVEL=0 MNTYMXDLY=0
X_U8C         CUENTA1 A N01491 $G_DPWR $G_DGND 74LS08 PARAMS:
+ IO_LEVEL=0 MNTYMXDLY=0
X_U9A         A N01661 N01768 N01854 $G_DPWR $G_DGND 74LS11 PARAMS:
+ IO_LEVEL=0 MNTYMXDLY=0
X_U9B         N00974 N01661 N01768 N01467 $G_DPWR $G_DGND 74LS11 PARAMS:
+ IO_LEVEL=0 MNTYMXDLY=0
X_U10A         N01847 N01854 N01584 $G_DPWR $G_DGND 74LS32 PARAMS:
+ IO_LEVEL=0 MNTYMXDLY=0
X_U10B         N01455 N01467 N01498 $G_DPWR $G_DGND 74LS32 PARAMS:
+ IO_LEVEL=0 MNTYMXDLY=0
X_U10C         N01491 N01467 C $G_DPWR $G_DGND 74LS32 PARAMS:
+ IO_LEVEL=0 MNTYMXDLY=0
X_U11A         RESET N01584 CLK UNO CUENTA0 N01768 $G_DPWR $G_DGND 74LS74A
+  PARAMS:
+ IO_LEVEL=0 MNTYMXDLY=0
X_U11B         RESET N01498 CLK UNO CUENTA1 N01661 $G_DPWR $G_DGND 74LS74A
+  PARAMS:
+ IO_LEVEL=0 MNTYMXDLY=0

**** RESUMING S7.cir ****
.END

* C:\Users\gomez\Desktop\S7\S7-PSpiceFiles\S7.stl written on Wed May 29 12:37:31 2024
* by Stimulus Editor -- Lite Version 16.6.0
;!Stimulus Get
;! CLK Digital RESET Digital UNO Digital A Digital
;!Ok
;!Plot Axis_Settings
;!Xrange 0s 4us
;!AutoUniverse
;!XminRes 50ns
;!YminRes 1n
;!Ok
.STIMULUS CLK STIM (1, 1) ;! CLOCKP 200ns 100ns 0 0
+   +0s 0
+   +100ns 1
+   Repeat Forever
+      +100ns 0
+      +100ns 1
+   EndRepeat
.STIMULUS RESET STIM (1, 1)
+   +0s 0
+   100ns 1
+   3us 0
+   3.2us 1
.STIMULUS UNO STIM (1, 1)
+   +0s 1
.STIMULUS A STIM (1, 1)
+   +0s 0
+   1.4us 1
+   2.2us 0
+   3us 1
+   3.2us 0

**** 05/29/24 12:40:46 ****** PSpice Lite (October 2012) ****** ID# 10813 ****

 ** Profile: "SCHEMATIC1-S7"  [ C:\Users\gomez\Desktop\S7\S7-PSpiceFiles\SCHEMATIC1\S7.sim ] 


 ****     Digital Gate MODEL PARAMETERS


******************************************************************************




               D_LS04          D_LS08          D_LS11          D_LS32          
      TPLHMN    3.600000E-09    3.200000E-09    3.200000E-09    5.600000E-09 
      TPLHTY    9.000000E-09    8.000000E-09    8.000000E-09   14.000000E-09 
      TPLHMX   15.000000E-09   15.000000E-09   15.000000E-09   22.000000E-09 
      TPHLMN    4.000000E-09    4.000000E-09    4.000000E-09    5.600000E-09 
      TPHLTY   10.000000E-09   10.000000E-09   10.000000E-09   14.000000E-09 
      TPHLMX   15.000000E-09   20.000000E-09   20.000000E-09   22.000000E-09 


**** 05/29/24 12:40:46 ****** PSpice Lite (October 2012) ****** ID# 10813 ****

 ** Profile: "SCHEMATIC1-S7"  [ C:\Users\gomez\Desktop\S7\S7-PSpiceFiles\SCHEMATIC1\S7.sim ] 


 ****     Digital Edge Triggered FF MODEL PARAMETERS


******************************************************************************




               D_LS74          
  TPCLKQLHMN    5.200000E-09 
  TPCLKQLHTY   13.000000E-09 
  TPCLKQLHMX   25.000000E-09 
  TPCLKQHLMN   10.000000E-09 
  TPCLKQHLTY   25.000000E-09 
  TPCLKQHLMX   40.000000E-09 
   TPPCQLHMN    5.200000E-09 
   TPPCQLHTY   13.000000E-09 
   TPPCQLHMX   25.000000E-09 
   TPPCQHLMN   10.000000E-09 
   TPPCQHLTY   25.000000E-09 
   TPPCQHLMX   40.000000E-09 
    TWCLKLMN    0            
    TWCLKLTY    0            
    TWCLKLMX    0            
    TWCLKHMN   25.000000E-09 
    TWCLKHTY   25.000000E-09 
    TWCLKHMX   25.000000E-09 
     TWPCLMN   25.000000E-09 
     TWPCLTY   25.000000E-09 
     TWPCLMX   25.000000E-09 
   TSUDCLKMN   20.000000E-09 
   TSUDCLKTY   20.000000E-09 
   TSUDCLKMX   20.000000E-09 
 TSUPCCLKHMN    0            
 TSUPCCLKHTY    0            
 TSUPCCLKHMX    0            
    THDCLKMN    5.000000E-09 
    THDCLKTY    5.000000E-09 
    THDCLKMX    5.000000E-09 
  TSUCECLKMN    0            
  TSUCECLKTY    0            
  TSUCECLKMX    0            
   THCECLKMN    0            
   THCECLKTY    0            
   THCECLKMX    0            


**** 05/29/24 12:40:46 ****** PSpice Lite (October 2012) ****** ID# 10813 ****

 ** Profile: "SCHEMATIC1-S7"  [ C:\Users\gomez\Desktop\S7\S7-PSpiceFiles\SCHEMATIC1\S7.sim ] 


 ****     Digital IO  MODEL PARAMETERS


******************************************************************************




               IO_STM          IO_LS           
        DRVL    0             157            
        DRVH    0             108            
       AtoD1                 AtoD_LS         
       AtoD2                 AtoD_LS_NX      
       AtoD3                 AtoD_LS         
       AtoD4                 AtoD_LS_NX      
       DtoA1 DtoA_STM        DtoA_LS         
       DtoA2 DtoA_STM        DtoA_LS         
       DtoA3 DtoA_STM        DtoA_LS         
       DtoA4 DtoA_STM        DtoA_LS         
      TSWHL1                    2.724000E-09 
      TSWHL2                    2.724000E-09 
      TSWHL3                    2.724000E-09 
      TSWHL4                    2.724000E-09 
      TSWLH1                    2.104000E-09 
      TSWLH2                    2.104000E-09 
      TSWLH3                    2.104000E-09 
      TSWLH4                    2.104000E-09 
       TPWRT  100.000000E+03  100.000000E+03 



          JOB CONCLUDED

**** 05/29/24 12:40:46 ****** PSpice Lite (October 2012) ****** ID# 10813 ****

 ** Profile: "SCHEMATIC1-S7"  [ C:\Users\gomez\Desktop\S7\S7-PSpiceFiles\SCHEMATIC1\S7.sim ] 


 ****     JOB STATISTICS SUMMARY


******************************************************************************



  Total job time                    =         .05
