
**** 04/17/24 12:52:58 ****** PSpice Lite (October 2012) ****** ID# 10813 ****

 ** Profile: "SCHEMATIC1-S4"  [ C:\Users\gomez\Desktop\S4\S4-PSpiceFiles\SCHEMATIC1\S4.sim ] 


 ****     CIRCUIT DESCRIPTION


******************************************************************************




** Creating circuit file "S4.cir" 
** WARNING: THIS AUTOMATICALLY GENERATED FILE MAY BE OVERWRITTEN BY SUBSEQUENT SIMULATIONS

*Libraries: 
* Profile Libraries :
* Local Libraries :
.STMLIB "../../../s4-pspicefiles/s4.stl" 
* From [PSPICE NETLIST] section of C:\Users\gomez\AppData\Roaming\SPB_16.6\cdssetup\OrCAD_PSpice/16.6.0/PSpice.ini file:
.lib "nomd.lib" 

*Analysis directives: 
.TRAN  0 3200ns 0 
.OPTIONS ADVCONV
.PROBE64 V(alias(*)) I(alias(*)) W(alias(*)) D(alias(*)) NOISE(alias(*)) 
.INC "..\SCHEMATIC1.net" 



**** INCLUDING SCHEMATIC1.net ****
* source S4
X_U1         N00365 N00758 N00415 N00569 N00365 N00389 N00365 N00415 N00415
+  N00389 N00415 N00605 Y M_UN0001 $G_DPWR $G_DGND 74LS151 PARAMS:
+ IO_LEVEL=0 MNTYMXDLY=0
U_S0         STIM(1,0) $G_DPWR $G_DGND N00415 IO_STM STIMULUS=S0
U_S1         STIM(1,0) $G_DPWR $G_DGND N00569 IO_STM STIMULUS=S1
U_A         STIM(1,0) $G_DPWR $G_DGND N00758 IO_STM STIMULUS=A
U_B         STIM(1,0) $G_DPWR $G_DGND N00605 IO_STM STIMULUS=B
U_1         STIM(1,0) $G_DPWR $G_DGND N00389 IO_STM STIMULUS=1
U_0         STIM(1,0) $G_DPWR $G_DGND N00365 IO_STM STIMULUS=0
X_U2A         N00605 N00415 $G_DPWR $G_DGND 74LS04 PARAMS:
+ IO_LEVEL=0 MNTYMXDLY=0

**** RESUMING S4.cir ****
.END

* C:\Users\gomez\Desktop\S4\S4-PSpiceFiles\S4.stl written on Wed Apr 17 12:42:21 2024
* by Stimulus Editor -- Lite Version 16.6.0
;!Stimulus Get
;! S0 Digital S1 Digital A Digital B Digital 1 Digital 0 Digital
;!Ok
;!Plot Axis_Settings
;!Xrange 0s 3.2us
;!AutoUniverse
;!XminRes 200ns
;!YminRes 1n
;!Ok
.STIMULUS S0 STIM (1, 1)
+   +0s 0
+   800ns 1
+   1.6us 0
+   2.4us 1
.STIMULUS S1 STIM (1, 1)
+   +0s 0
+   1.6us 1
.STIMULUS A STIM (1, 1)
+   +0s 0
+   400ns 1
+   800ns 0
+   1.2us 1
+   1.6us 0
+   2us 1
+   2.4us 0
+   2.8us 1
.STIMULUS B STIM (1, 1)
+   +0s 0
+   200ns 1
+   400ns 0
+   600ns 1
+   800ns 0
+   1us 1
+   1.2us 0
+   1.4us 1
+   1.6us 0
+   1.8us 1
+   2us 0
+   2.2us 1
+   2.4us 0
+   2.6us 1
+   2.8us 0
+   3us 1
.STIMULUS 1 STIM (1, 1)
+   +0s 1
.STIMULUS 0 STIM (1, 1)
+   +0s 0

**** 04/17/24 12:52:58 ****** PSpice Lite (October 2012) ****** ID# 10813 ****

 ** Profile: "SCHEMATIC1-S4"  [ C:\Users\gomez\Desktop\S4\S4-PSpiceFiles\SCHEMATIC1\S4.sim ] 


 ****     Digital Gate MODEL PARAMETERS


******************************************************************************




               D0_GATE         D_LS04          
      TPLHMN    0               3.600000E-09 
      TPLHTY    0               9.000000E-09 
      TPLHMX    0              15.000000E-09 
      TPHLMN    0               4.000000E-09 
      TPHLTY    0              10.000000E-09 
      TPHLMX    0              15.000000E-09 


**** 04/17/24 12:52:58 ****** PSpice Lite (October 2012) ****** ID# 10813 ****

 ** Profile: "SCHEMATIC1-S4"  [ C:\Users\gomez\Desktop\S4\S4-PSpiceFiles\SCHEMATIC1\S4.sim ] 


 ****     Digital IO  MODEL PARAMETERS


******************************************************************************




               IO_STM          IO_LS           
        DRVL    0             157            
        DRVH    0             108            
       AtoD1                 AtoD_LS         
       AtoD2                 AtoD_LS_NX      
       AtoD3                 AtoD_LS         
       AtoD4                 AtoD_LS_NX      
       DtoA1 DtoA_STM        DtoA_LS         
       DtoA2 DtoA_STM        DtoA_LS         
       DtoA3 DtoA_STM        DtoA_LS         
       DtoA4 DtoA_STM        DtoA_LS         
      TSWHL1                    2.724000E-09 
      TSWHL2                    2.724000E-09 
      TSWHL3                    2.724000E-09 
      TSWHL4                    2.724000E-09 
      TSWLH1                    2.104000E-09 
      TSWLH2                    2.104000E-09 
      TSWLH3                    2.104000E-09 
      TSWLH4                    2.104000E-09 
       TPWRT  100.000000E+03  100.000000E+03 



          JOB CONCLUDED

**** 04/17/24 12:52:58 ****** PSpice Lite (October 2012) ****** ID# 10813 ****

 ** Profile: "SCHEMATIC1-S4"  [ C:\Users\gomez\Desktop\S4\S4-PSpiceFiles\SCHEMATIC1\S4.sim ] 


 ****     JOB STATISTICS SUMMARY


******************************************************************************



  Total job time                    =         .02
